Create_PLEXOS_database/1-parse-matpower/inputs/RTS.m
function mpc = RTS96

%%%%%%%%%%%%%%%%%%%%%%%%%%%%%%% RTS 96 Test Case %%%%%%%%%%%%%%%%%%%%%%%%%%%%%%%
%% By : Clayton Barrows, Ali Ehlen, Matt O Connell, and Dheepak Krishnamurthy %%
%%%%%%%%%%%%%%%%%%%%%%%%%%%%%%%%%%%%%%%%%%%%%%%%%%%%%%%%%%%%%%%%%%%%%%%%%%%%%%%%

mpc.version = '2';
mpc.baseMVA = 100.0;

%% area data
% area refbus
mpc.areas = [
    1    101;
    2    201;
    3    301;
        ];

%% bus data
%	bus_i	type	Pd	Qd	Gs	Bs	area	Vm	Va	baseKV	zone	Vmax	Vmin
mpc.bus = [
	101	2	108.0	22.0	0.0	0.0	11.0	nan	nan	138.0	11.0	1.05	0.95
	102	2	97.0	20.0	0.0	0.0	11.0	nan	nan	138.0	12.0	1.05	0.95
	103	1	180.0	37.0	0.0	0.0	11.0	nan	nan	138.0	11.0	1.05	0.95
	104	1	74.0	15.0	0.0	0.0	11.0	nan	nan	138.0	11.0	1.05	0.95
	105	1	71.0	14.0	0.0	0.0	11.0	nan	nan	138.0	11.0	1.05	0.95
	106	1	136.0	28.0	0.0	1.0	11.0	nan	nan	138.0	12.0	1.05	0.95
	107	2	125.0	25.0	0.0	0.0	11.0	nan	nan	138.0	12.0	1.05	0.95
	108	1	171.0	35.0	0.0	0.0	11.0	nan	nan	138.0	12.0	1.05	0.95
	109	1	175.0	36.0	0.0	0.0	11.0	nan	nan	138.0	13.0	1.05	0.95
	110	1	195.0	40.0	0.0	0.0	11.0	nan	nan	138.0	13.0	1.05	0.95
	111	1	0.0	0.0	0.0	0.0	11.0	nan	nan	230.0	13.0	1.05	0.95
	112	1	0.0	0.0	0.0	0.0	11.0	nan	nan	230.0	13.0	1.05	0.95
	113	3	265.0	54.0	0.0	0.0	12.0	nan	nan	230.0	14.0	1.05	0.95
	114	2	194.0	39.0	0.0	0.0	12.0	nan	nan	230.0	16.0	1.05	0.95
	115	2	317.0	64.0	0.0	0.0	12.0	nan	nan	230.0	16.0	1.05	0.95
	116	2	100.0	20.0	0.0	0.0	12.0	nan	nan	230.0	16.0	1.05	0.95
	117	1	0.0	0.0	0.0	0.0	12.0	nan	nan	230.0	17.0	1.05	0.95
	118	2	333.0	68.0	0.0	0.0	12.0	nan	nan	230.0	17.0	1.05	0.95
	119	1	181.0	37.0	0.0	0.0	12.0	nan	nan	230.0	15.0	1.05	0.95
	120	1	128.0	26.0	0.0	0.0	12.0	nan	nan	230.0	15.0	1.05	0.95
	121	2	0.0	0.0	0.0	0.0	12.0	nan	nan	230.0	17.0	1.05	0.95
	122	2	0.0	0.0	0.0	0.0	12.0	nan	nan	230.0	17.0	1.05	0.95
	123	2	0.0	0.0	0.0	0.0	12.0	nan	nan	230.0	15.0	1.05	0.95
	124	1	0.0	0.0	0.0	0.0	12.0	nan	nan	230.0	16.0	1.05	0.95
	201	2	108.0	22.0	0.0	0.0	21.0	nan	nan	138.0	21.0	1.05	0.95
	202	2	97.0	20.0	0.0	0.0	21.0	nan	nan	138.0	22.0	1.05	0.95
	203	1	180.0	37.0	0.0	0.0	21.0	nan	nan	138.0	21.0	1.05	0.95
	204	1	74.0	15.0	0.0	0.0	21.0	nan	nan	138.0	21.0	1.05	0.95
	205	1	71.0	14.0	0.0	0.0	21.0	nan	nan	138.0	21.0	1.05	0.95
	206	1	136.0	28.0	0.0	1.0	21.0	nan	nan	138.0	22.0	1.05	0.95
	207	2	125.0	25.0	0.0	0.0	21.0	nan	nan	138.0	22.0	1.05	0.95
	208	1	171.0	35.0	0.0	0.0	21.0	nan	nan	138.0	22.0	1.05	0.95
	209	1	175.0	36.0	0.0	0.0	21.0	nan	nan	138.0	23.0	1.05	0.95
	210	1	195.0	40.0	0.0	0.0	21.0	nan	nan	138.0	23.0	1.05	0.95
	211	1	0.0	0.0	0.0	0.0	21.0	nan	nan	230.0	23.0	1.05	0.95
	212	1	0.0	0.0	0.0	0.0	21.0	nan	nan	230.0	23.0	1.05	0.95
	213	2	265.0	54.0	0.0	0.0	22.0	nan	nan	230.0	24.0	1.05	0.95
	214	2	194.0	39.0	0.0	0.0	22.0	nan	nan	230.0	26.0	1.05	0.95
	215	2	317.0	64.0	0.0	0.0	22.0	nan	nan	230.0	26.0	1.05	0.95
	216	2	100.0	20.0	0.0	0.0	22.0	nan	nan	230.0	26.0	1.05	0.95
	217	1	0.0	0.0	0.0	0.0	22.0	nan	nan	230.0	27.0	1.05	0.95
	218	2	333.0	68.0	0.0	0.0	22.0	nan	nan	230.0	27.0	1.05	0.95
	219	1	181.0	37.0	0.0	0.0	22.0	nan	nan	230.0	25.0	1.05	0.95
	220	1	128.0	26.0	0.0	0.0	22.0	nan	nan	230.0	25.0	1.05	0.95
	221	2	0.0	0.0	0.0	0.0	22.0	nan	nan	230.0	27.0	1.05	0.95
	222	2	0.0	0.0	0.0	0.0	22.0	nan	nan	230.0	27.0	1.05	0.95
	223	2	0.0	0.0	0.0	0.0	22.0	nan	nan	230.0	25.0	1.05	0.95
	224	1	0.0	0.0	0.0	0.0	22.0	nan	nan	230.0	26.0	1.05	0.95
	301	2	108.0	22.0	0.0	0.0	31.0	nan	nan	138.0	31.0	1.05	0.95
	302	2	97.0	20.0	0.0	0.0	31.0	nan	nan	138.0	32.0	1.05	0.95
	303	1	180.0	37.0	0.0	0.0	31.0	nan	nan	138.0	31.0	1.05	0.95
	304	1	74.0	15.0	0.0	0.0	31.0	nan	nan	138.0	31.0	1.05	0.95
	305	1	71.0	14.0	0.0	0.0	31.0	nan	nan	138.0	31.0	1.05	0.95
	306	1	136.0	28.0	0.0	1.0	31.0	nan	nan	138.0	32.0	1.05	0.95
	307	2	125.0	25.0	0.0	0.0	31.0	nan	nan	138.0	32.0	1.05	0.95
	308	1	171.0	35.0	0.0	0.0	31.0	nan	nan	138.0	32.0	1.05	0.95
	309	1	175.0	36.0	0.0	0.0	31.0	nan	nan	138.0	33.0	1.05	0.95
	310	1	195.0	40.0	0.0	0.0	31.0	nan	nan	138.0	33.0	1.05	0.95
	311	1	0.0	0.0	0.0	0.0	31.0	nan	nan	230.0	33.0	1.05	0.95
	312	1	0.0	0.0	0.0	0.0	31.0	nan	nan	230.0	33.0	1.05	0.95
	313	2	265.0	54.0	0.0	0.0	32.0	nan	nan	230.0	34.0	1.05	0.95
	314	2	194.0	39.0	0.0	0.0	32.0	nan	nan	230.0	36.0	1.05	0.95
	315	2	317.0	64.0	0.0	0.0	32.0	nan	nan	230.0	36.0	1.05	0.95
	316	2	100.0	20.0	0.0	0.0	32.0	nan	nan	230.0	36.0	1.05	0.95
	317	1	0.0	0.0	0.0	0.0	32.0	nan	nan	230.0	37.0	1.05	0.95
	318	2	333.0	68.0	0.0	0.0	32.0	nan	nan	230.0	37.0	1.05	0.95
	319	1	181.0	37.0	0.0	0.0	32.0	nan	nan	230.0	35.0	1.05	0.95
	320	1	128.0	26.0	0.0	0.0	32.0	nan	nan	230.0	35.0	1.05	0.95
	321	2	0.0	0.0	0.0	0.0	32.0	nan	nan	230.0	37.0	1.05	0.95
	322	2	0.0	0.0	0.0	0.0	32.0	nan	nan	230.0	37.0	1.05	0.95
	323	2	0.0	0.0	0.0	0.0	32.0	nan	nan	230.0	35.0	1.05	0.95
	324	1	0.0	0.0	0.0	0.0	32.0	nan	nan	230.0	36.0	1.05	0.95
	325	1	0.0	0.0	0.0	0.0	32.0	nan	nan	230.0	35.0	1.05	0.95
];

%% generator data
%	bus	Pg	Qg	Qmax	Qmin	Vg	mBase	status	Pmax	Pmin	Pc1	Pc2	Qc1min	Qc1max	Qc2min	Qc2max	ramp_agc	ramp_10	ramp_30	ramp_q	apf
mpc.gen = [
	101	10.0	0.0	10.0	0.0	1.035	nan	nan	20.0	0	nan	nan	nan	nan	nan	nan	3.0	3.0	3.0	3.0	nan
	101	10.0	0.0	10.0	0.0	1.035	nan	nan	20.0	0	nan	nan	nan	nan	nan	nan	3.0	3.0	3.0	3.0	nan
	101	76.0	14.1	30.0	-25.0	1.035	nan	nan	76.0	0	nan	nan	nan	nan	nan	nan	2.0	2.0	2.0	2.0	nan
	101	76.0	14.1	30.0	-25.0	1.035	nan	nan	76.0	0	nan	nan	nan	nan	nan	nan	2.0	2.0	2.0	2.0	nan
	102	10.0	0.0	10.0	0.0	1.035	nan	nan	20.0	0	nan	nan	nan	nan	nan	nan	3.0	3.0	3.0	3.0	nan
	102	10.0	0.0	10.0	0.0	1.035	nan	nan	20.0	0	nan	nan	nan	nan	nan	nan	3.0	3.0	3.0	3.0	nan
	102	76.0	7.0	30.0	-25.0	1.035	nan	nan	76.0	0	nan	nan	nan	nan	nan	nan	2.0	2.0	2.0	2.0	nan
	102	76.0	7.0	30.0	-25.0	1.035	nan	nan	76.0	0	nan	nan	nan	nan	nan	nan	2.0	2.0	2.0	2.0	nan
	107	355.0	71.78	150.0	-25.0	1.05	nan	nan	355.0	0	nan	nan	nan	nan	nan	nan	4.14	4.14	4.14	4.14	nan
	113	55.0	11.0	19.0	-15.0	1.028	nan	nan	55.0	0	nan	nan	nan	nan	nan	nan	3.7	3.7	3.7	3.7	nan
	113	55.0	11.0	19.0	-15.0	1.028	nan	nan	55.0	0	nan	nan	nan	nan	nan	nan	3.7	3.7	3.7	3.7	nan
	113	55.0	11.0	19.0	-15.0	1.028	nan	nan	55.0	0	nan	nan	nan	nan	nan	nan	3.7	3.7	3.7	3.7	nan
	113	55.0	11.0	19.0	-15.0	1.028	nan	nan	55.0	0	nan	nan	nan	nan	nan	nan	3.7	3.7	3.7	3.7	nan
	114	0.0	13.7	200.0	-50.0	0.98	nan	nan	nan	0	nan	nan	nan	nan	nan	nan	nan	nan	nan	nan	nan
	115	12.0	0.0	6.0	0.0	1.014	nan	nan	12.0	0	nan	nan	nan	nan	nan	nan	1.0	1.0	1.0	1.0	nan
	115	12.0	0.0	6.0	0.0	1.014	nan	nan	12.0	0	nan	nan	nan	nan	nan	nan	1.0	1.0	1.0	1.0	nan
	115	155.0	0.05	80.0	-50.0	1.014	nan	nan	155.0	0	nan	nan	nan	nan	nan	nan	3.0	3.0	3.0	3.0	nan
	116	155.0	25.22	80.0	-50.0	1.017	nan	nan	155.0	0	nan	nan	nan	nan	nan	nan	3.0	3.0	3.0	3.0	nan
	118	350.0	71.78	150.0	-25.0	1.05	nan	nan	355.0	0	nan	nan	nan	nan	nan	nan	4.14	4.14	4.14	4.14	nan
	121	400.0	108.2	200.0	-50.0	1.05	nan	nan	400.0	0	nan	nan	nan	nan	nan	nan	20.0	20.0	20.0	20.0	nan
	122	50.0	-4.96	16.0	-10.0	1.05	nan	nan	50.0	0	nan	nan	nan	nan	nan	nan	0.0	0.0	0.0	0.0	nan
	122	50.0	-4.96	16.0	-10.0	1.05	nan	nan	50.0	0	nan	nan	nan	nan	nan	nan	0.0	0.0	0.0	0.0	nan
	122	50.0	-4.96	16.0	-10.0	1.05	nan	nan	50.0	0	nan	nan	nan	nan	nan	nan	0.0	0.0	0.0	0.0	nan
	122	50.0	-4.96	16.0	-10.0	1.05	nan	nan	50.0	0	nan	nan	nan	nan	nan	nan	0.0	0.0	0.0	0.0	nan
	122	50.0	-4.96	16.0	-10.0	1.05	nan	nan	50.0	0	nan	nan	nan	nan	nan	nan	0.0	0.0	0.0	0.0	nan
	122	50.0	-4.96	16.0	-10.0	1.05	nan	nan	50.0	0	nan	nan	nan	nan	nan	nan	0.0	0.0	0.0	0.0	nan
	123	55.0	11.0	19.0	-15.0	1.028	nan	nan	55.0	0	nan	nan	nan	nan	nan	nan	3.7	3.7	3.7	3.7	nan
	123	155.0	31.79	80.0	-50.0	1.05	nan	nan	155.0	0	nan	nan	nan	nan	nan	nan	3.0	3.0	3.0	3.0	nan
	123	350.0	71.78	150.0	-25.0	1.05	nan	nan	350.0	0	nan	nan	nan	nan	nan	nan	4.0	4.0	4.0	4.0	nan
	123	55.0	11.0	19.0	-15.0	1.028	nan	nan	55.0	0	nan	nan	nan	nan	nan	nan	3.7	3.7	3.7	3.7	nan
	123	55.0	11.0	19.0	-15.0	1.028	nan	nan	55.0	0	nan	nan	nan	nan	nan	nan	3.7	3.7	3.7	3.7	nan
	201	10.0	0.0	10.0	0.0	1.035	nan	nan	20.0	0	nan	nan	nan	nan	nan	nan	3.0	3.0	3.0	3.0	nan
	201	10.0	0.0	10.0	0.0	1.035	nan	nan	20.0	0	nan	nan	nan	nan	nan	nan	3.0	3.0	3.0	3.0	nan
	201	76.0	14.1	30.0	-25.0	1.035	nan	nan	76.0	0	nan	nan	nan	nan	nan	nan	2.0	2.0	2.0	2.0	nan
	201	50.0	-4.96	16.0	-10.0	1.05	nan	nan	50.0	0	nan	nan	nan	nan	nan	nan	0.0	0.0	0.0	0.0	nan
	202	10.0	0.0	10.0	0.0	1.035	nan	nan	20.0	0	nan	nan	nan	nan	nan	nan	3.0	3.0	3.0	3.0	nan
	202	10.0	0.0	10.0	0.0	1.035	nan	nan	20.0	0	nan	nan	nan	nan	nan	nan	3.0	3.0	3.0	3.0	nan
	202	76.0	7.0	30.0	-25.0	1.035	nan	nan	76.0	0	nan	nan	nan	nan	nan	nan	2.0	2.0	2.0	2.0	nan
	202	76.0	7.0	30.0	-25.0	1.035	nan	nan	76.0	0	nan	nan	nan	nan	nan	nan	2.0	2.0	2.0	2.0	nan
	207	55.0	11.0	19.0	-15.0	1.028	nan	nan	55.0	0	nan	nan	nan	nan	nan	nan	3.7	3.7	3.7	3.7	nan
	207	55.0	11.0	19.0	-15.0	1.028	nan	nan	55.0	0	nan	nan	nan	nan	nan	nan	3.7	3.7	3.7	3.7	nan
	213	55.0	11.0	19.0	-15.0	1.028	nan	nan	55.0	0	nan	nan	nan	nan	nan	nan	3.7	3.7	3.7	3.7	nan
	213	55.0	11.0	19.0	-15.0	1.028	nan	nan	55.0	0	nan	nan	nan	nan	nan	nan	3.7	3.7	3.7	3.7	nan
	213	355.0	71.78	150.0	-25.0	1.05	nan	nan	355.0	0	nan	nan	nan	nan	nan	nan	4.14	4.14	4.14	4.14	nan
	214	0.0	13.68	200.0	-50.0	0.98	nan	nan	nan	0	nan	nan	nan	nan	nan	nan	nan	nan	nan	nan	nan
	215	50.0	-4.96	16.0	-10.0	1.05	nan	nan	50.0	0	nan	nan	nan	nan	nan	nan	0.0	0.0	0.0	0.0	nan
	215	50.0	-4.96	16.0	-10.0	1.05	nan	nan	50.0	0	nan	nan	nan	nan	nan	nan	0.0	0.0	0.0	0.0	nan
	215	50.0	-4.96	16.0	-10.0	1.05	nan	nan	50.0	0	nan	nan	nan	nan	nan	nan	0.0	0.0	0.0	0.0	nan
	215	55.0	11.0	19.0	-15.0	1.028	nan	nan	55.0	0	nan	nan	nan	nan	nan	nan	3.7	3.7	3.7	3.7	nan
	215	55.0	11.0	19.0	-15.0	1.028	nan	nan	55.0	0	nan	nan	nan	nan	nan	nan	3.7	3.7	3.7	3.7	nan
	216	155.0	25.22	80.0	-50.0	1.017	nan	nan	155.0	0	nan	nan	nan	nan	nan	nan	3.0	3.0	3.0	3.0	nan
	218	355.0	71.78	150.0	-25.0	1.05	nan	nan	355.0	0	nan	nan	nan	nan	nan	nan	4.14	4.14	4.14	4.14	nan
	221	355.0	71.78	150.0	-25.0	1.05	nan	nan	355.0	0	nan	nan	nan	nan	nan	nan	4.14	4.14	4.14	4.14	nan
	222	50.0	-4.96	16.0	-10.0	1.05	nan	nan	50.0	0	nan	nan	nan	nan	nan	nan	0.0	0.0	0.0	0.0	nan
	222	50.0	-4.96	16.0	-10.0	1.05	nan	nan	50.0	0	nan	nan	nan	nan	nan	nan	0.0	0.0	0.0	0.0	nan
	222	50.0	-4.96	16.0	-10.0	1.05	nan	nan	50.0	0	nan	nan	nan	nan	nan	nan	0.0	0.0	0.0	0.0	nan
	222	50.0	-4.96	16.0	-10.0	1.05	nan	nan	50.0	0	nan	nan	nan	nan	nan	nan	0.0	0.0	0.0	0.0	nan
	222	50.0	-4.96	16.0	-10.0	1.05	nan	nan	50.0	0	nan	nan	nan	nan	nan	nan	0.0	0.0	0.0	0.0	nan
	222	50.0	-4.96	16.0	-10.0	1.05	nan	nan	50.0	0	nan	nan	nan	nan	nan	nan	0.0	0.0	0.0	0.0	nan
	223	155.0	31.79	80.0	-50.0	1.05	nan	nan	155.0	0	nan	nan	nan	nan	nan	nan	3.0	3.0	3.0	3.0	nan
	223	155.0	31.79	80.0	-50.0	1.05	nan	nan	155.0	0	nan	nan	nan	nan	nan	nan	3.0	3.0	3.0	3.0	nan
	223	350.0	71.78	150.0	-25.0	1.05	nan	nan	350.0	0	nan	nan	nan	nan	nan	nan	4.0	4.0	4.0	4.0	nan
	223	55.0	11.0	19.0	-15.0	1.028	nan	nan	55.0	0	nan	nan	nan	nan	nan	nan	3.7	3.7	3.7	3.7	nan
	223	55.0	11.0	19.0	-15.0	1.028	nan	nan	55.0	0	nan	nan	nan	nan	nan	nan	3.7	3.7	3.7	3.7	nan
	223	55.0	11.0	19.0	-15.0	1.028	nan	nan	55.0	0	nan	nan	nan	nan	nan	nan	3.7	3.7	3.7	3.7	nan
	301	10.0	0.0	10.0	0.0	1.035	nan	nan	20.0	0	nan	nan	nan	nan	nan	nan	3.0	3.0	3.0	3.0	nan
	301	10.0	0.0	10.0	0.0	1.035	nan	nan	20.0	0	nan	nan	nan	nan	nan	nan	3.0	3.0	3.0	3.0	nan
	301	55.0	11.0	19.0	-15.0	1.028	nan	nan	55.0	0	nan	nan	nan	nan	nan	nan	3.7	3.7	3.7	3.7	nan
	301	55.0	11.0	19.0	-15.0	1.028	nan	nan	55.0	0	nan	nan	nan	nan	nan	nan	3.7	3.7	3.7	3.7	nan
	302	10.0	0.0	10.0	0.0	1.035	nan	nan	20.0	0	nan	nan	nan	nan	nan	nan	3.0	3.0	3.0	3.0	nan
	302	10.0	0.0	10.0	0.0	1.035	nan	nan	20.0	0	nan	nan	nan	nan	nan	nan	3.0	3.0	3.0	3.0	nan
	302	55.0	11.0	19.0	-15.0	1.028	nan	nan	55.0	0	nan	nan	nan	nan	nan	nan	3.7	3.7	3.7	3.7	nan
	302	55.0	11.0	19.0	-15.0	1.028	nan	nan	55.0	0	nan	nan	nan	nan	nan	nan	3.7	3.7	3.7	3.7	nan
	307	55.0	11.0	19.0	-15.0	1.028	nan	nan	55.0	0	nan	nan	nan	nan	nan	nan	3.7	3.7	3.7	3.7	nan
	307	55.0	11.0	19.0	-15.0	1.028	nan	nan	55.0	0	nan	nan	nan	nan	nan	nan	3.7	3.7	3.7	3.7	nan
	313	355.0	71.78	150.0	-25.0	1.05	nan	nan	355.0	0	nan	nan	nan	nan	nan	nan	4.14	4.14	4.14	4.14	nan
	314	0.0	13.68	200.0	-50.0	0.98	nan	nan	nan	0	nan	nan	nan	nan	nan	nan	nan	nan	nan	nan	nan
	315	12.0	0.0	6.0	0.0	1.014	nan	nan	12.0	0	nan	nan	nan	nan	nan	nan	1.0	1.0	1.0	1.0	nan
	315	12.0	0.0	6.0	0.0	1.014	nan	nan	12.0	0	nan	nan	nan	nan	nan	nan	1.0	1.0	1.0	1.0	nan
	315	12.0	0.0	6.0	0.0	1.014	nan	nan	12.0	0	nan	nan	nan	nan	nan	nan	1.0	1.0	1.0	1.0	nan
	315	12.0	0.0	6.0	0.0	1.014	nan	nan	12.0	0	nan	nan	nan	nan	nan	nan	1.0	1.0	1.0	1.0	nan
	315	12.0	0.0	6.0	0.0	1.014	nan	nan	12.0	0	nan	nan	nan	nan	nan	nan	1.0	1.0	1.0	1.0	nan
	315	55.0	11.0	19.0	-15.0	1.028	nan	nan	55.0	0	nan	nan	nan	nan	nan	nan	3.7	3.7	3.7	3.7	nan
	315	55.0	11.0	19.0	-15.0	1.028	nan	nan	55.0	0	nan	nan	nan	nan	nan	nan	3.7	3.7	3.7	3.7	nan
	315	55.0	17.2	60.0	0.0	1.025	nan	nan	55.0	0	nan	nan	nan	nan	nan	nan	3.7	3.7	3.7	3.7	nan
	316	155.0	25.22	80.0	-50.0	1.017	nan	nan	155.0	0	nan	nan	nan	nan	nan	nan	3.0	3.0	3.0	3.0	nan
	318	355.0	71.78	150.0	-25.0	1.05	nan	nan	355.0	0	nan	nan	nan	nan	nan	nan	4.14	4.14	4.14	4.14	nan
	321	355.0	71.78	150.0	-25.0	1.05	nan	nan	355.0	0	nan	nan	nan	nan	nan	nan	4.14	4.14	4.14	4.14	nan
	322	50.0	-4.96	16.0	-10.0	1.05	nan	nan	50.0	0	nan	nan	nan	nan	nan	nan	0.0	0.0	0.0	0.0	nan
	322	50.0	-4.96	16.0	-10.0	1.05	nan	nan	50.0	0	nan	nan	nan	nan	nan	nan	0.0	0.0	0.0	0.0	nan
	322	50.0	-4.96	16.0	-10.0	1.05	nan	nan	50.0	0	nan	nan	nan	nan	nan	nan	0.0	0.0	0.0	0.0	nan
	322	50.0	-4.96	16.0	-10.0	1.05	nan	nan	50.0	0	nan	nan	nan	nan	nan	nan	0.0	0.0	0.0	0.0	nan
	322	55.0	11.0	19.0	-15.0	1.028	nan	nan	55.0	0	nan	nan	nan	nan	nan	nan	3.7	3.7	3.7	3.7	nan
	322	55.0	11.0	19.0	-15.0	1.028	nan	nan	55.0	0	nan	nan	nan	nan	nan	nan	3.7	3.7	3.7	3.7	nan
	323	355.0	71.78	150.0	-25.0	1.05	nan	nan	355.0	0	nan	nan	nan	nan	nan	nan	4.14	4.14	4.14	4.14	nan
	323	355.0	71.78	150.0	-25.0	1.05	nan	nan	355.0	0	nan	nan	nan	nan	nan	nan	4.14	4.14	4.14	4.14	nan
];

%% branch data
%	fbus	tbus	r	x	b	rateA	rateB	rateC	ratio	angle	status	angmin	angmax
mpc.branch = [
	101	102	0.003	0.014	0.461	175.0	175.0	175.0	0.0	nan	nan	nan	nan
	101	103	0.055	0.211	0.057	175.0	175.0	175.0	0.0	nan	nan	nan	nan
	101	105	0.022	0.085	0.023	175.0	175.0	175.0	0.0	nan	nan	nan	nan
	102	104	0.033	0.127	0.034	175.0	175.0	175.0	0.0	nan	nan	nan	nan
	102	106	0.05	0.192	0.052	175.0	175.0	175.0	0.0	nan	nan	nan	nan
	103	109	0.031	0.119	0.032	175.0	175.0	175.0	0.0	nan	nan	nan	nan
	103	124	0.002	0.084	0.0	400.0	400.0	400.0	1.015	nan	nan	nan	nan
	104	109	0.027	0.104	0.028	175.0	175.0	175.0	0.0	nan	nan	nan	nan
	105	110	0.023	0.088	0.024	175.0	175.0	175.0	0.0	nan	nan	nan	nan
	106	110	0.014	0.061	2.459	175.0	175.0	175.0	0.0	nan	nan	nan	nan
	107	108	0.016	0.061	0.017	175.0	175.0	175.0	0.0	nan	nan	nan	nan
	107	203	0.042	0.161	0.044	175.0	175.0	175.0	0.0	nan	nan	nan	nan
	108	109	0.043	0.165	0.045	175.0	175.0	175.0	0.0	nan	nan	nan	nan
	108	110	0.043	0.165	0.045	175.0	175.0	175.0	0.0	nan	nan	nan	nan
	109	111	0.002	0.084	0.0	400.0	400.0	400.0	1.03	nan	nan	nan	nan
	109	112	0.002	0.084	0.0	400.0	400.0	400.0	1.03	nan	nan	nan	nan
	110	111	0.002	0.084	0.0	400.0	400.0	400.0	1.015	nan	nan	nan	nan
	110	112	0.002	0.084	0.0	400.0	400.0	400.0	1.015	nan	nan	nan	nan
	111	113	0.006	0.048	0.1	500.0	500.0	500.0	0.0	nan	nan	nan	nan
	111	114	0.005	0.042	0.088	500.0	500.0	500.0	0.0	nan	nan	nan	nan
	112	113	0.006	0.048	0.1	500.0	500.0	500.0	0.0	nan	nan	nan	nan
	112	123	0.012	0.097	0.203	500.0	500.0	500.0	0.0	nan	nan	nan	nan
	113	123	0.011	0.087	0.182	500.0	500.0	500.0	0.0	nan	nan	nan	nan
	113	215	0.01	0.075	0.158	500.0	500.0	500.0	0.0	nan	nan	nan	nan
	114	116	0.005	0.059	0.082	500.0	500.0	500.0	0.0	nan	nan	nan	nan
	115	116	0.002	0.017	0.036	500.0	500.0	500.0	0.0	nan	nan	nan	nan
	115	121	0.006	0.049	0.103	500.0	500.0	500.0	0.0	nan	nan	nan	nan
	115	121	0.006	0.049	0.103	500.0	500.0	500.0	0.0	nan	nan	nan	nan
	115	124	0.007	0.052	0.109	500.0	500.0	500.0	0.0	nan	nan	nan	nan
	116	117	0.003	0.026	0.055	500.0	500.0	500.0	0.0	nan	nan	nan	nan
	116	119	0.003	0.023	0.049	500.0	500.0	500.0	0.0	nan	nan	nan	nan
	117	118	0.002	0.014	0.03	500.0	500.0	500.0	0.0	nan	nan	nan	nan
	117	122	0.014	0.105	0.221	500.0	500.0	500.0	0.0	nan	nan	nan	nan
	118	121	0.003	0.026	0.055	500.0	500.0	500.0	0.0	nan	nan	nan	nan
	118	121	0.003	0.026	0.055	500.0	500.0	500.0	0.0	nan	nan	nan	nan
	119	120	0.005	0.04	0.083	500.0	500.0	500.0	0.0	nan	nan	nan	nan
	119	120	0.005	0.04	0.083	500.0	500.0	500.0	0.0	nan	nan	nan	nan
	120	123	0.003	0.022	0.046	500.0	500.0	500.0	0.0	nan	nan	nan	nan
	120	123	0.003	0.022	0.046	500.0	500.0	500.0	0.0	nan	nan	nan	nan
	121	122	0.009	0.068	0.142	500.0	500.0	500.0	0.0	nan	nan	nan	nan
	123	217	0.01	0.074	0.155	500.0	500.0	500.0	0.0	nan	nan	nan	nan
	201	202	0.003	0.014	0.461	175.0	175.0	175.0	0.0	nan	nan	nan	nan
	201	203	0.055	0.211	0.057	175.0	175.0	175.0	0.0	nan	nan	nan	nan
	201	205	0.022	0.085	0.023	175.0	175.0	175.0	0.0	nan	nan	nan	nan
	202	204	0.033	0.127	0.034	175.0	175.0	175.0	0.0	nan	nan	nan	nan
	202	206	0.05	0.192	0.052	175.0	175.0	175.0	0.0	nan	nan	nan	nan
	203	209	0.031	0.119	0.032	175.0	175.0	175.0	0.0	nan	nan	nan	nan
	203	224	0.002	0.084	0.0	400.0	400.0	400.0	1.015	nan	nan	nan	nan
	204	209	0.027	0.104	0.028	175.0	175.0	175.0	0.0	nan	nan	nan	nan
	205	210	0.023	0.088	0.024	175.0	175.0	175.0	0.0	nan	nan	nan	nan
	206	210	0.014	0.061	2.459	175.0	175.0	175.0	0.0	nan	nan	nan	nan
	207	208	0.016	0.061	0.017	175.0	175.0	175.0	0.0	nan	nan	nan	nan
	208	209	0.043	0.165	0.045	175.0	175.0	175.0	0.0	nan	nan	nan	nan
	208	210	0.043	0.165	0.045	175.0	175.0	175.0	0.0	nan	nan	nan	nan
	209	211	0.002	0.084	0.0	400.0	400.0	400.0	1.03	nan	nan	nan	nan
	209	212	0.002	0.084	0.0	400.0	400.0	400.0	1.03	nan	nan	nan	nan
	210	211	0.002	0.084	0.0	400.0	400.0	400.0	1.015	nan	nan	nan	nan
	210	212	0.002	0.084	0.0	400.0	400.0	400.0	1.015	nan	nan	nan	nan
	211	213	0.006	0.048	0.1	500.0	500.0	500.0	0.0	nan	nan	nan	nan
	211	214	0.005	0.042	0.088	500.0	500.0	500.0	0.0	nan	nan	nan	nan
	212	213	0.006	0.048	0.1	500.0	500.0	500.0	0.0	nan	nan	nan	nan
	212	223	0.012	0.097	0.203	500.0	500.0	500.0	0.0	nan	nan	nan	nan
	213	223	0.011	0.087	0.182	500.0	500.0	500.0	0.0	nan	nan	nan	nan
	214	216	0.005	0.059	0.082	500.0	500.0	500.0	0.0	nan	nan	nan	nan
	215	216	0.002	0.017	0.036	500.0	500.0	500.0	0.0	nan	nan	nan	nan
	215	221	0.006	0.049	0.103	500.0	500.0	500.0	0.0	nan	nan	nan	nan
	215	221	0.006	0.049	0.103	500.0	500.0	500.0	0.0	nan	nan	nan	nan
	215	224	0.007	0.052	0.109	500.0	500.0	500.0	0.0	nan	nan	nan	nan
	216	217	0.003	0.026	0.055	500.0	500.0	500.0	0.0	nan	nan	nan	nan
	216	219	0.003	0.023	0.049	500.0	500.0	500.0	0.0	nan	nan	nan	nan
	217	218	0.002	0.014	0.03	500.0	500.0	500.0	0.0	nan	nan	nan	nan
	217	222	0.014	0.105	0.221	500.0	500.0	500.0	0.0	nan	nan	nan	nan
	218	221	0.003	0.026	0.055	500.0	500.0	500.0	0.0	nan	nan	nan	nan
	218	221	0.003	0.026	0.055	500.0	500.0	500.0	0.0	nan	nan	nan	nan
	219	220	0.005	0.04	0.083	500.0	500.0	500.0	0.0	nan	nan	nan	nan
	219	220	0.005	0.04	0.083	500.0	500.0	500.0	0.0	nan	nan	nan	nan
	220	223	0.003	0.022	0.046	500.0	500.0	500.0	0.0	nan	nan	nan	nan
	220	223	0.003	0.022	0.046	500.0	500.0	500.0	0.0	nan	nan	nan	nan
	221	222	0.009	0.068	0.142	500.0	500.0	500.0	0.0	nan	nan	nan	nan
	301	302	0.003	0.014	0.461	175.0	175.0	175.0	0.0	nan	nan	nan	nan
	301	303	0.055	0.211	0.057	175.0	175.0	175.0	0.0	nan	nan	nan	nan
	301	305	0.022	0.085	0.023	175.0	175.0	175.0	0.0	nan	nan	nan	nan
	302	304	0.033	0.127	0.034	175.0	175.0	175.0	0.0	nan	nan	nan	nan
	302	306	0.05	0.192	0.052	175.0	175.0	175.0	0.0	nan	nan	nan	nan
	303	309	0.031	0.119	0.032	175.0	175.0	175.0	0.0	nan	nan	nan	nan
	303	324	0.002	0.084	0.0	400.0	400.0	400.0	1.015	nan	nan	nan	nan
	304	309	0.027	0.104	0.028	175.0	175.0	175.0	0.0	nan	nan	nan	nan
	305	310	0.023	0.088	0.024	175.0	175.0	175.0	0.0	nan	nan	nan	nan
	306	310	0.014	0.061	2.459	175.0	175.0	175.0	0.0	nan	nan	nan	nan
	307	308	0.016	0.061	0.017	175.0	175.0	175.0	0.0	nan	nan	nan	nan
	308	309	0.043	0.165	0.045	175.0	175.0	175.0	0.0	nan	nan	nan	nan
	308	310	0.043	0.165	0.045	175.0	175.0	175.0	0.0	nan	nan	nan	nan
	309	311	0.002	0.084	0.0	400.0	400.0	400.0	1.03	nan	nan	nan	nan
	309	312	0.002	0.084	0.0	400.0	400.0	400.0	1.03	nan	nan	nan	nan
	310	311	0.002	0.084	0.0	400.0	400.0	400.0	1.015	nan	nan	nan	nan
	310	312	0.002	0.084	0.0	400.0	400.0	400.0	1.015	nan	nan	nan	nan
	311	313	0.006	0.048	0.1	500.0	500.0	500.0	0.0	nan	nan	nan	nan
	311	314	0.005	0.042	0.088	500.0	500.0	500.0	0.0	nan	nan	nan	nan
	312	313	0.006	0.048	0.1	500.0	500.0	500.0	0.0	nan	nan	nan	nan
	312	323	0.012	0.097	0.203	500.0	500.0	500.0	0.0	nan	nan	nan	nan
	313	323	0.011	0.087	0.182	500.0	500.0	500.0	0.0	nan	nan	nan	nan
	314	316	0.005	0.059	0.082	500.0	500.0	500.0	0.0	nan	nan	nan	nan
	315	316	0.002	0.017	0.036	500.0	500.0	500.0	0.0	nan	nan	nan	nan
	315	321	0.006	0.049	0.103	500.0	500.0	500.0	0.0	nan	nan	nan	nan
	315	321	0.006	0.049	0.103	500.0	500.0	500.0	0.0	nan	nan	nan	nan
	315	324	0.007	0.052	0.109	500.0	500.0	500.0	0.0	nan	nan	nan	nan
	316	317	0.003	0.026	0.055	500.0	500.0	500.0	0.0	nan	nan	nan	nan
	316	319	0.003	0.023	0.049	500.0	500.0	500.0	0.0	nan	nan	nan	nan
	317	318	0.002	0.014	0.03	500.0	500.0	500.0	0.0	nan	nan	nan	nan
	317	322	0.014	0.105	0.221	500.0	500.0	500.0	0.0	nan	nan	nan	nan
	318	321	0.003	0.026	0.055	500.0	500.0	500.0	0.0	nan	nan	nan	nan
	318	321	0.003	0.026	0.055	500.0	500.0	500.0	0.0	nan	nan	nan	nan
	319	320	0.005	0.04	0.083	500.0	500.0	500.0	0.0	nan	nan	nan	nan
	319	320	0.005	0.04	0.083	500.0	500.0	500.0	0.0	nan	nan	nan	nan
	320	323	0.003	0.022	0.046	500.0	500.0	500.0	0.0	nan	nan	nan	nan
	320	323	0.003	0.022	0.046	500.0	500.0	500.0	0.0	nan	nan	nan	nan
	321	322	0.009	0.068	0.142	500.0	500.0	500.0	0.0	nan	nan	nan	nan
	325	121	0.012	0.097	0.203	500.0	500.0	500.0	0.0	nan	nan	nan	nan
	318	223	0.013	0.104	0.218	500.0	500.0	500.0	0.0	nan	nan	nan	nan
	323	325	0.0	0.009	0.0	722.0	722.0	722.0	1.0	nan	nan	nan	nan
];

%% generator cost data
%	1	startup	shutdown	n	P0,c(0)	...	Pn-1,c(n-1)
%	2	startup	shutdown	n	c(n-1)	...	c0

mpc.gencost = [
	1	5.0	5.0	3	7.9	1231554.79638	8.0	1241758.26984	9.9	1441130.14638
	1	5.0	5.0	3	7.9	1231554.79638	8.0	1241758.26984	9.9	1441130.14638
	1	596.0	596.0	3	15.2	549693.209336	38.0	1009896.99399	60.8	1490247.94894
	1	596.0	596.0	3	15.2	549693.209336	38.0	1009896.99399	60.8	1490247.94894
	1	5.0	5.0	3	7.9	1231554.79638	8.0	1241758.26984	9.9	1441130.14638
	1	5.0	5.0	3	7.9	1231554.79638	8.0	1241758.26984	9.9	1441130.14638
	1	596.0	596.0	3	15.2	549693.209336	38.0	1009896.99399	60.8	1490247.94894
	1	596.0	596.0	3	15.2	549693.209336	38.0	1009896.99399	60.8	1490247.94894
	1	84.0	84.0	3	223.65	11518372.6005	248.5	12051010.7578	323.05	13789764.2638
	1	12.0	12.0	3	33.0	1789994.84004	35.75	1893814.7118	46.75	2334236.7378
	1	12.0	12.0	3	33.0	1789994.84004	35.75	1893814.7118	46.75	2334236.7378
	1	12.0	12.0	3	33.0	1789994.84004	35.75	1893814.7118	46.75	2334236.7378
	1	12.0	12.0	3	33.0	1789994.84004	35.75	1893814.7118	46.75	2334236.7378
	1	0	0	1	0	0
	1	68.0	68.0	3	2.4	397839.21552	6.0	777086.76888	9.6	1161960.25608
	1	68.0	68.0	3	2.4	397839.21552	6.0	777086.76888	9.6	1161960.25608
	1	953.0	953.0	3	54.25	1289506.41813	93.0	1966551.35294	124.0	2526274.59923
	1	953.0	953.0	3	54.25	1289506.41813	93.0	1966551.35294	124.0	2526274.59923
	1	84.0	84.0	3	220.5	11356142.0005	245.0	11881278.2119	318.5	13595542.2319
	1	9999.0	9999.0	3	100.0	1033277.285	200.0	1750274.965	320.0	2622049.495
	1	0.0	0.0	1	0	0
	1	0.0	0.0	1	0	0
	1	0.0	0.0	1	0	0
	1	0.0	0.0	1	0	0
	1	0.0	0.0	1	0	0
	1	0.0	0.0	1	0	0
	1	12.0	12.0	3	33.0	1789994.84004	35.75	1893814.7118	46.75	2334236.7378
	1	953.0	953.0	3	54.25	1289506.41813	93.0	1966551.35294	124.0	2526274.59923
	1	4468.0	4468.0	3	140.0	3018777.72	227.5	4572930.31825	280.0	5560248.20785
	1	12.0	12.0	3	33.0	1789994.84004	35.75	1893814.7118	46.75	2334236.7378
	1	12.0	12.0	3	33.0	1789994.84004	35.75	1893814.7118	46.75	2334236.7378
	1	5.0	5.0	3	7.9	1231554.79638	8.0	1241758.26984	9.9	1441130.14638
	1	5.0	5.0	3	7.9	1231554.79638	8.0	1241758.26984	9.9	1441130.14638
	1	596.0	596.0	3	15.2	549693.209336	38.0	1009896.99399	60.8	1490247.94894
	1	0.0	0.0	1	0	0
	1	5.0	5.0	3	7.9	1231554.79638	8.0	1241758.26984	9.9	1441130.14638
	1	5.0	5.0	3	7.9	1231554.79638	8.0	1241758.26984	9.9	1441130.14638
	1	596.0	596.0	3	15.2	549693.209336	38.0	1009896.99399	60.8	1490247.94894
	1	596.0	596.0	3	15.2	549693.209336	38.0	1009896.99399	60.8	1490247.94894
	1	12.0	12.0	3	33.0	1789994.84004	35.75	1893814.7118	46.75	2334236.7378
	1	12.0	12.0	3	33.0	1789994.84004	35.75	1893814.7118	46.75	2334236.7378
	1	12.0	12.0	3	33.0	1789994.84004	35.75	1893814.7118	46.75	2334236.7378
	1	12.0	12.0	3	33.0	1789994.84004	35.75	1893814.7118	46.75	2334236.7378
	1	84.0	84.0	3	223.65	11518372.6005	248.5	12051010.7578	323.05	13789764.2638
	1	0	0	1	0	0
	1	0.0	0.0	1	0	0
	1	0.0	0.0	1	0	0
	1	0.0	0.0	1	0	0
	1	12.0	12.0	3	33.0	1789994.84004	35.75	1893814.7118	46.75	2334236.7378
	1	12.0	12.0	3	33.0	1789994.84004	35.75	1893814.7118	46.75	2334236.7378
	1	953.0	953.0	3	54.25	1289506.41813	93.0	1966551.35294	124.0	2526274.59923
	1	84.0	84.0	3	223.65	11518372.6005	248.5	12051010.7578	323.05	13789764.2638
	1	84.0	84.0	3	223.65	11518372.6005	248.5	12051010.7578	323.05	13789764.2638
	1	0.0	0.0	1	0	0
	1	0.0	0.0	1	0	0
	1	0.0	0.0	1	0	0
	1	0.0	0.0	1	0	0
	1	0.0	0.0	1	0	0
	1	0.0	0.0	1	0	0
	1	953.0	953.0	3	54.25	1289506.41813	93.0	1966551.35294	124.0	2526274.59923
	1	953.0	953.0	3	54.25	1289506.41813	93.0	1966551.35294	124.0	2526274.59923
	1	4468.0	4468.0	3	140.0	3018777.72	227.5	4572930.31825	280.0	5560248.20785
	1	12.0	12.0	3	33.0	1789994.84004	35.75	1893814.7118	46.75	2334236.7378
	1	12.0	12.0	3	33.0	1789994.84004	35.75	1893814.7118	46.75	2334236.7378
	1	12.0	12.0	3	33.0	1789994.84004	35.75	1893814.7118	46.75	2334236.7378
	1	5.0	5.0	3	7.9	1231554.79638	8.0	1241758.26984	9.9	1441130.14638
	1	5.0	5.0	3	7.9	1231554.79638	8.0	1241758.26984	9.9	1441130.14638
	1	12.0	12.0	3	33.0	1789994.84004	35.75	1893814.7118	46.75	2334236.7378
	1	12.0	12.0	3	33.0	1789994.84004	35.75	1893814.7118	46.75	2334236.7378
	1	5.0	5.0	3	7.9	1231554.79638	8.0	1241758.26984	9.9	1441130.14638
	1	5.0	5.0	3	7.9	1231554.79638	8.0	1241758.26984	9.9	1441130.14638
	1	12.0	12.0	3	33.0	1789994.84004	35.75	1893814.7118	46.75	2334236.7378
	1	12.0	12.0	3	33.0	1789994.84004	35.75	1893814.7118	46.75	2334236.7378
	1	12.0	12.0	3	33.0	1789994.84004	35.75	1893814.7118	46.75	2334236.7378
	1	12.0	12.0	3	33.0	1789994.84004	35.75	1893814.7118	46.75	2334236.7378
	1	84.0	84.0	3	223.65	11518372.6005	248.5	12051010.7578	323.05	13789764.2638
	1	0	0	1	0	0
	1	68.0	68.0	3	2.4	397839.21552	6.0	777086.76888	9.6	1161960.25608
	1	68.0	68.0	3	2.4	397839.21552	6.0	777086.76888	9.6	1161960.25608
	1	68.0	68.0	3	2.4	397839.21552	6.0	777086.76888	9.6	1161960.25608
	1	68.0	68.0	3	2.4	397839.21552	6.0	777086.76888	9.6	1161960.25608
	1	68.0	68.0	3	2.4	397839.21552	6.0	777086.76888	9.6	1161960.25608
	1	12.0	12.0	3	33.0	1789994.84004	35.75	1893814.7118	46.75	2334236.7378
	1	12.0	12.0	3	33.0	1789994.84004	35.75	1893814.7118	46.75	2334236.7378
	1	12.0	12.0	3	33.0	1789994.84004	35.75	1893814.7118	46.75	2334236.7378
	1	953.0	953.0	3	54.25	1289506.41813	93.0	1966551.35294	124.0	2526274.59923
	1	84.0	84.0	3	223.65	11518372.6005	248.5	12051010.7578	323.05	13789764.2638
	1	84.0	84.0	3	223.65	11518372.6005	248.5	12051010.7578	323.05	13789764.2638
	1	0.0	0.0	1	0	0
	1	0.0	0.0	1	0	0
	1	0.0	0.0	1	0	0
	1	0.0	0.0	1	0	0
	1	12.0	12.0	3	33.0	1789994.84004	35.75	1893814.7118	46.75	2334236.7378
	1	12.0	12.0	3	33.0	1789994.84004	35.75	1893814.7118	46.75	2334236.7378
	1	84.0	84.0	3	223.65	11518372.6005	248.5	12051010.7578	323.05	13789764.2638
	1	84.0	84.0	3	223.65	11518372.6005	248.5	12051010.7578	323.05	13789764.2638
];

